Version 4
SHEET 1 880 680
WIRE 144 -112 64 -112
WIRE 64 -80 64 -112
WIRE 64 32 64 0
WIRE 64 32 -112 32
WIRE 64 80 64 32
WIRE -112 224 -112 32
WIRE 48 224 48 192
WIRE 48 224 -112 224
WIRE 80 224 80 192
WIRE 224 224 80 224
WIRE 80 240 80 224
WIRE 32 320 -112 320
FLAG 224 224 vout
IOPIN 224 224 Out
FLAG 80 336 0
FLAG -112 400 0
FLAG 144 -112 0
SYMBOL nmos 32 240 R0
SYMATTR InstName M1
SYMBOL voltage -112 304 R0
WINDOW 123 0 0 Left 0
WINDOW 39 0 0 Left 0
SYMATTR InstName V1
SYMATTR Value PULSE(0 2 0 1n 1n 1 2)
SYMBOL voltage 64 16 R180
WINDOW 0 24 96 Left 2
WINDOW 3 24 16 Left 2
WINDOW 123 0 0 Left 0
WINDOW 39 0 0 Left 0
SYMATTR InstName V2
SYMATTR Value 2
SYMBOL MEM_KNOWM 64 128 R90
SYMATTR InstName U1
TEXT -144 424 Left 2 !.tran 8
