Version 4
SHEET 1 880 680
WIRE 384 80 240 80
WIRE 128 96 -192 96
WIRE -192 144 -192 96
WIRE 384 208 384 80
WIRE 480 208 384 208
WIRE 384 304 384 208
WIRE 384 304 240 304
WIRE 128 320 -192 320
WIRE -192 368 -192 320
FLAG -192 224 0
FLAG -192 448 0
FLAG 480 208 vout
IOPIN 480 208 Out
SYMBOL MEM_KNOWM 176 96 R0
SYMATTR InstName U1
SYMBOL MEM_KNOWM 176 320 R0
SYMATTR InstName U2
SYMBOL voltage -192 128 R0
WINDOW 123 0 0 Left 0
WINDOW 39 0 0 Left 0
SYMATTR InstName V1
SYMATTR Value PULSE(0 1.2 0 1n 1n 1 2)
SYMBOL voltage -192 352 R0
WINDOW 123 0 0 Left 0
WINDOW 39 0 0 Left 0
SYMATTR InstName V2
SYMATTR Value PULSE(0 1.2 0.5 1n 1n 1 2)
TEXT -224 472 Left 2 !.tran 0 6s 0 3m
